<?xml version="1.0" encoding="UTF-8"?>
<!-- generated on 2024-03-30 01:39:36.196509 by randomTrips.py UNKNOWN
  options: -n 1.net.xml -o 1.flows.xml <doubleminus>begin 0 <doubleminus>end 300 <doubleminus>flows 20 <doubleminus>jtrrouter <doubleminus>allow-fringe
-->
<routes xmlns:xsi="http://www.w3.org/2001/XMLSchema-instance" xsi:noNamespaceSchemaLocation="http://sumo.dlr.de/xsd/routes_file.xsd">
    <flow id="0" begin="0.0" end="300.0" period="100" from="gneE0"/>
    <flow id="1" begin="0.0" end="300.0" period="100" from="gneE0"/>
    <flow id="2" begin="0.0" end="300.0" period="100" from="gneE0"/>
    <flow id="3" begin="0.0" end="300.0" period="100" from="gneE1"/>
    <flow id="4" begin="0.0" end="300.0" period="100" from="gneE1"/>
    <flow id="5" begin="0.0" end="300.0" period="100" from="gneE1"/>
    <flow id="6" begin="0.0" end="300.0" period="100" from="gneE1"/>
    <flow id="7" begin="0.0" end="300.0" period="100" from="gneE0"/>
    <flow id="8" begin="0.0" end="300.0" period="100" from="gneE1"/>
    <flow id="9" begin="0.0" end="300.0" period="100" from="gneE0"/>
    <flow id="10" begin="0.0" end="300.0" period="100" from="gneE1"/>
    <flow id="11" begin="0.0" end="300.0" period="100" from="gneE1"/>
    <flow id="12" begin="0.0" end="300.0" period="100" from="gneE1"/>
    <flow id="13" begin="0.0" end="300.0" period="100" from="gneE1"/>
    <flow id="14" begin="0.0" end="300.0" period="100" from="gneE1"/>
    <flow id="15" begin="0.0" end="300.0" period="100" from="gneE1"/>
    <flow id="16" begin="0.0" end="300.0" period="100" from="gneE0"/>
    <flow id="17" begin="0.0" end="300.0" period="100" from="gneE1"/>
    <flow id="18" begin="0.0" end="300.0" period="100" from="gneE1"/>
    <flow id="19" begin="0.0" end="300.0" period="100" from="gneE0"/>
</routes>
